Version 4
SHEET 1 1348 1028
WIRE 608 -128 432 -128
WIRE 432 -80 432 -128
WIRE 608 -80 608 -128
WIRE 1120 -80 1024 -80
WIRE 1280 -64 1184 -64
WIRE 1280 -48 1280 -64
WIRE 1024 -16 1024 -80
WIRE 1120 -16 1024 -16
WIRE 112 0 32 0
WIRE 224 0 112 0
WIRE 1024 0 1024 -16
WIRE 1024 0 608 0
WIRE 224 16 224 0
WIRE 1120 16 1040 16
WIRE 112 32 112 0
WIRE 32 64 32 0
WIRE 1280 80 1280 32
WIRE -48 128 -272 128
WIRE 224 128 224 96
WIRE -976 144 -1280 144
WIRE 112 144 112 112
WIRE 192 144 112 144
WIRE 608 144 608 80
WIRE 608 144 512 144
WIRE 432 160 256 160
WIRE 192 176 64 176
WIRE -272 208 -272 128
WIRE -176 208 -272 208
WIRE 1040 208 1040 16
WIRE -1280 224 -1280 144
WIRE -1216 224 -1280 224
WIRE -48 224 -48 128
WIRE -48 224 -112 224
WIRE 64 224 64 176
WIRE 64 224 -48 224
WIRE 224 224 224 192
WIRE -1088 240 -1152 240
WIRE -976 240 -976 144
WIRE -976 240 -1024 240
WIRE -336 240 -976 240
WIRE -176 240 -336 240
WIRE -1216 256 -1408 256
WIRE 288 256 224 256
WIRE 384 256 368 256
WIRE 432 256 432 160
WIRE 512 256 512 144
WIRE 512 256 432 256
WIRE 864 256 848 256
WIRE 976 256 944 256
WIRE 224 288 224 256
WIRE 384 288 384 256
WIRE -1408 304 -1408 256
WIRE -976 304 -976 240
WIRE 64 304 64 224
WIRE 192 304 64 304
WIRE -48 320 -48 224
WIRE 432 320 432 256
WIRE 432 320 256 320
WIRE -336 336 -336 320
WIRE 192 336 128 336
WIRE 128 368 128 336
WIRE -656 384 -672 384
WIRE -528 384 -576 384
WIRE -512 384 -528 384
WIRE -400 384 -432 384
WIRE 224 384 224 352
WIRE 1040 400 1040 304
WIRE 128 480 128 448
WIRE -1408 496 -1408 384
WIRE -1200 496 -1408 496
WIRE -976 496 -976 368
WIRE -976 496 -1200 496
WIRE -672 496 -672 384
WIRE -672 496 -976 496
WIRE -336 496 -336 432
WIRE -336 496 -672 496
WIRE -48 496 -48 400
WIRE -48 496 -336 496
WIRE -1200 544 -1200 496
WIRE 512 640 512 256
WIRE 656 640 512 640
WIRE 848 640 848 256
WIRE 848 640 816 640
WIRE -528 688 -528 384
WIRE 656 688 -528 688
FLAG -1200 544 0
FLAG 432 -80 0
FLAG 1040 400 0
FLAG 1280 80 0
FLAG 224 384 0
FLAG 224 224 0
FLAG 32 64 0
FLAG 128 480 0
FLAG 384 288 0
SYMBOL voltage -1408 288 R0
WINDOW 123 0 0 Left 0
WINDOW 39 0 0 Left 0
SYMATTR InstName V1
SYMATTR Value SINE(0 1.1 50)
SYMBOL diode -1088 256 R270
WINDOW 0 32 32 VTop 2
WINDOW 3 0 32 VBottom 2
SYMATTR InstName D1
SYMBOL cap -992 304 R0
SYMATTR InstName C1
SYMATTR Value 10µ
SYMBOL res -64 304 R0
WINDOW 0 48 36 Left 2
SYMATTR InstName R1
SYMATTR Value 100k
SYMBOL res 592 -16 R0
SYMATTR InstName R2
SYMATTR Value 10k
SYMBOL voltage 608 16 R180
WINDOW 0 24 96 Left 2
WINDOW 3 24 16 Left 2
WINDOW 123 0 0 Left 0
WINDOW 39 0 0 Left 0
SYMATTR InstName V5
SYMATTR Value 5
SYMBOL npn 976 208 R0
SYMATTR InstName Q1
SYMATTR Value BC547B
SYMBOL ZZZ\\Relays\\rly_spst-no 1152 -64 R0
SYMATTR InstName U2
SYMBOL res 1264 -64 R0
SYMATTR InstName R3
SYMATTR Value 100
SYMBOL res 960 240 R90
WINDOW 0 0 56 VBottom 2
WINDOW 3 32 56 VTop 2
SYMATTR InstName R4
SYMATTR Value 220
SYMBOL opamp -1184 176 R0
SYMATTR InstName U3
SYMBOL opamp -144 160 R0
SYMATTR InstName U4
SYMBOL ZZZ\\Comparator\\LM339A_TI 224 160 R0
SYMATTR InstName U1
SYMBOL ZZZ\\Comparator\\LM339A_TI 224 320 R0
SYMATTR InstName U5
SYMBOL voltage 128 352 R0
WINDOW 123 0 0 Left 0
WINDOW 39 0 0 Left 0
SYMATTR InstName V2
SYMATTR Value 1.35
SYMBOL voltage 112 128 R180
WINDOW 0 24 96 Left 2
WINDOW 3 24 16 Left 2
WINDOW 123 0 0 Left 0
WINDOW 39 0 0 Left 0
SYMATTR InstName V3
SYMATTR Value 1
SYMBOL voltage 272 256 R270
WINDOW 0 32 56 VTop 2
WINDOW 3 -32 56 VBottom 2
WINDOW 123 0 0 Left 0
WINDOW 39 0 0 Left 0
SYMATTR InstName V4
SYMATTR Value 5
SYMBOL voltage 224 112 R180
WINDOW 0 24 96 Left 2
WINDOW 3 24 16 Left 2
WINDOW 123 0 0 Left 0
WINDOW 39 0 0 Left 0
SYMATTR InstName V6
SYMATTR Value 5
SYMBOL npn -400 336 R0
SYMATTR InstName Q2
SYMATTR Value BC547B
SYMBOL voltage -560 384 R90
WINDOW 0 -32 56 VBottom 2
WINDOW 3 32 56 VTop 2
WINDOW 123 0 0 Left 0
WINDOW 39 0 0 Left 0
SYMATTR InstName V7
SYMATTR Value PULSE(0 5 0 0 0 0.5 1 10)
SYMBOL res -416 368 R90
WINDOW 0 0 56 VBottom 2
WINDOW 3 32 56 VTop 2
SYMATTR InstName R5
SYMATTR Value 200
SYMBOL res -320 336 R180
WINDOW 0 36 76 Left 2
WINDOW 3 36 40 Left 2
SYMATTR InstName R6
SYMATTR Value 10
SYMBOL Digital\\dflop 736 592 R0
SYMATTR InstName A5
TEXT -1440 520 Left 2 !.tran 3
